version 2
1
2
.dc V1 0 1 100m{return}.kicad adjustpaths{return}.save all{return}.probe alli
0
